/*--------------------------------*- C++ -*----------------------------------*\
| =========                 |                                                 |
| \\      /  F ield         | OpenFOAM: The Open Source CFD Toolbox           |
|  \\    /   O peration     | Version:  2.2.0                                 |
|   \\  /    A nd           | Web:      www.OpenFOAM.org                      |
|    \\/     M anipulation  |                                                 |
\*---------------------------------------------------------------------------*/
FoamFile
{
    version     2.0;
    format      ascii;
    class       dictionary;
    object      snappyHexMeshDict;
}
// * * * * * * * * * * * * * * * * * * * * * * * * * * * * * * * * * * * * * //

// Which of the steps to run
castellatedMesh true;    // make basic mesh ?
snap            true;    // decide to snap back to surface ?
addLayers       true;   // decide to add viscous layers ?


geometry // Load in STL files here
{
	wing.stl {type triSurfaceMesh; name wing;}
	region1.stl {type triSurfaceMesh; name region1;}
	region2.stl {type triSurfaceMesh; name region2;}
	region3.stl {type triSurfaceMesh; name region3;}
	region4.stl {type triSurfaceMesh; name region4;}
	//refinementBox {type searchableBox; min (-5 -5 0); max (8 5 25);}
};

castellatedMeshControls
{
    maxLocalCells 200000;  //max cells per CPU core
    maxGlobalCells 5000000; //max cells to use before mesh deletion step
    minRefinementCells 10;  //was 0 - zero means no bad cells are allowed during refinement stages
    maxLoadUnbalance 0.10;
    nCellsBetweenLevels 1;  // expansion factor between each high & low refinement zone

    // Explicit feature edge refinement
    // ~~~~~~~~~~~~~~~~~~~~~~~~~~~~~~~~

    features // taken from STL from each .eMesh file created by "SurfaceFeatureExtract" command
    (
        {file "wing.eMesh"; level 5;} 
        //{file "visc_refine_1.eMesh"; level 3;} 
        //{file "visc_refine_2.eMesh"; level 3;} 
    );

    // Surface based refinement
    // ~~~~~~~~~~~~~~~~~~~~~~~~

    refinementSurfaces // Surface-wise min and max refinement level

	{
    
	wing {level (5 5);}
	//visc_refine_1 {level (5 5);} // was 4 4
	//visc_refine_2 {level (5 5);} // was 4 4
    }  


    resolveFeatureAngle 100;  // Resolve sharp angles // Default 30
    refinementRegions        // In descending levels of fine-ness
    {
	region1 
		{mode inside; levels  ((5 5));}

	region2 
		{mode inside; levels  ((4 4));}

	region3 
		{mode inside; levels  ((3 3));}

	region4 
		{mode inside; levels  ((2 2));}

    } // volume {mode inside; levels  ((0 0));} was ((0.001 4) (0.003 3) (0.01 2))

    locationInMesh (10 20 20);  //to decide which side of mesh to keep **
    allowFreeStandingZoneFaces true;
}


// Settings for the snapping.
snapControls
{
    nSmoothPatch 1;
    tolerance 1.0;
    nSolveIter 20;
    nRelaxIter 10;
    nFeatureSnapIter 30; // default is 10
    
// New settings from openfoam 2.2 onwards for SHMesh

implicitFeatureSnap false; // default is false - detects without doing surfaceFeatureExtract
explicitFeatureSnap true; // default is true
multiRegionFeatureSnap true; // deafault is false - detects features between multiple surfaces

}



// Settings for the layer addition.
addLayersControls //add the PATCH names from inside the STL file so STLpatchName_insideSTLName 
{
    relativeSizes true; // was true
    layers
    {
	wing
         	{nSurfaceLayers 5;} // was 3
    }

    //expansionRatio 1.3;
    firstLayerThickness 0.05;
    thickness 1; //was 0.00016
    minThickness 0.00008; //was 0.00008
    nGrow 0; // was 1 


    // Advanced settings

    featureAngle 90; // was 70 //- When not to extrude surface. 0 is flat, 90 is right angle.
    nRelaxIter 3;  //- Max# of snapping relaxation iter. Should stop before upon reaching a correct mesh.
    nSmoothSurfaceNormals 1;  // Number of smoothing iterations of surface normals
    nSmoothNormals 10; // Number of smoothing iterations of interior mesh movement direction
    nSmoothThickness 10;  // Smooth layer thickness over surface patches
    maxFaceThicknessRatio 0.99; // Stop layer growth on highly warped cells
    maxThicknessToMedialRatio 0.99; // Reduce layer growth where ratio thickness to medial distance is large
    minMedianAxisAngle 130;  // Angle used to pick up medial axis points
    nBufferCellsNoExtrude 0;   // Create buffer region for new layer terminations
    nLayerIter 50; // Overall max number of layer addition iterations
}



// Generic mesh quality settings. At any undoable phase these determine
// where to undo.
meshQualityControls
{
    maxNonOrtho 65;
    maxBoundarySkewness 20;
    maxInternalSkewness 5;
    maxConcave 80;
    minFlatness 0.5;
    minVol 1e-13;
    minTetQuality 1e-9;
    minArea -1;
    minTwist 0.02;
    minDeterminant 0.001;
    minFaceWeight 0.02;
    minVolRatio 0.01;
    minTriangleTwist -1;

    // Advanced

    nSmoothScale 4;
    errorReduction 0.75;
}

// Advanced

debug 0;


// Merge tolerance. Is fraction of overall bounding box of initial mesh.
// Note: the write tolerance needs to be higher than this.
mergeTolerance 1E-6;


// ************************************************************************* //
